C8H5N2O2
APtclcactv04272003243D 0   0.00000     0.00000
 
 17 18  0  0  0  0  0  0  0  0999 V2000
   -3.3693    0.7253    0.0002 C   0  0  0  0  0  0  0  0  0  0  0  0
   -3.3504   -0.7341   -0.0000 C   0  0  0  0  0  0  0  0  0  0  0  0
   -2.1362   -1.4531   -0.0001 C   0  0  0  0  0  0  0  0  0  0  0  0
   -0.8419   -0.7354    0.0000 C   0  0  0  0  0  0  0  0  0  0  0  0
    0.4370   -1.1078    0.0004 N   0  0  0  0  0  0  0  0  0  0  0  0
    1.2055    0.0117    0.0004 C   0  0  0  0  0  0  0  0  0  0  0  0
    2.6785    0.0135   -0.0000 C   0  4  0  0  0  0  0  0  0  0  0  0
    3.2828   -1.0302   -0.0004 O   0  0  0  0  0  0  0  0  0  0  0  0
    3.2803    1.0586    0.0000 O   0  0  0  0  0  0  0  0  0  0  0  0
    0.4339    1.1300    0.0001 N   0  0  0  0  0  0  0  0  0  0  0  0
   -0.8279    0.7778   -0.0002 C   0  0  0  0  0  0  0  0  0  0  0  0
   -2.1015    1.4986   -0.0001 C   0  0  0  0  0  0  0  0  0  0  0  0
   -4.3145    1.2478   -0.0039 H   0  0  0  0  0  0  0  0  0  0  0  0
   -4.2851   -1.2751    0.0002 H   0  0  0  0  0  0  0  0  0  0  0  0
   -2.1515   -2.5330   -0.0000 H   0  0  0  0  0  0  0  0  0  0  0  0
    0.7632   -2.0213    0.0006 H   0  0  0  0  0  0  0  0  0  0  0  0
   -2.1192    2.5785    0.0006 H   0  0  0  0  0  0  0  0  0  0  0  0
  1  2  2  0  0  0  0
  2  3  1  0  0  0  0
  3  4  2  0  0  0  0
  4  5  1  0  0  0  0
  5  6  1  0  0  0  0
  6  7  1  0  0  0  0
  7  8  2  0  0  0  0
  7  9  2  0  0  0  0
  6 10  2  0  0  0  0
 10 11  1  0  0  0  0
  4 11  1  0  0  0  0
 11 12  2  0  0  0  0
  1 12  1  0  0  0  0
  1 13  1  0  0  0  0
  2 14  1  0  0  0  0
  3 15  1  0  0  0  0
  5 16  1  0  0  0  0
 12 17  1  0  0  0  0
M  RAD  1   7   2
M  END
$$$$
